!-Generator IDFEditor 1.48
!-Option OriginalOrderTop UseSpecialFormat

!-NOTE: All comments with '!-' are ignored by the IDFEditor and are generated automatically.
!-      Use '!' comments if they need to be retained when using the IDFEditor.

Output:Variable,LR_Int_S,Surface Inside Face Temperature ,Timestep;
Output:Variable,AI_North_Ext,Surface Outside Face Temperature ,Timestep;
Output:Variable,AI_East_Ext,Surface Outside Face Temperature ,Timestep;

Material,
    WoodFloorCeiling,        !- Name
    MediumSmooth,            !- Roughness
    0.12,                    !- Thickness {m}
    0.63,                    !- Conductivity {W/m-K}
    800,                     !- Density {kg/m3}
    1880,                    !- Specific Heat {J/kg-K}
    0.2;                     !- Thermal Absorptance

Material,
    WoodFloorGF,             !- Name
    MediumSmooth,            !- Roughness
    0.22,                    !- Thickness {m}
    0.047,                   !- Conductivity {W/m-K}
    105,                     !- Density {kg/m3}
    1880;                    !- Specific Heat {J/kg-K}

Material,
    Flooring,                !- Name
    MediumSmooth,            !- Roughness
    0.0125,                  !- Thickness {m}
    0.17,                    !- Conductivity {W/m-K}
    450,                     !- Density {kg/m3}
    1880;                    !- Specific Heat {J/kg-K}

Material,
    WoodWallStructure,       !- Name
    MediumSmooth,            !- Roughness
    0.085,                   !- Thickness {m}
    0.18,                    !- Conductivity {W/m-K}
    800,                     !- Density {kg/m3}
    1880;                    !- Specific Heat {J/kg-K}

Construction,
    InternalFloorLW,         !- Name
    Floor_Screed,            !- Outside Layer
    WoodFloorCeiling;        !- Layer 2

Construction,
    GroundFloorLW,           !- Name
    Floor_Screed,            !- Outside Layer
    Flooring,                !- Layer 2
    WoodFloorGF;             !- Layer 3

Construction,
    ExternalWallLW,          !- Name
    Wall_Brick_5,            !- Outside Layer
    Insul_MinWool_188,       !- Layer 2
    WoodWallStructure,       !- Layer 3
    Plaster_Gypsum;          !- Layer 4

ZoneHVAC:EnergyRecoveryVentilator,
    LR_VENT_HR,              !- Name
    HRV_Sched,               !- Availability Schedule Name
    LR_VENT_HEX,             !- Heat Exchanger Name
    0.039,                   !- Supply Air Flow Rate {m3/s}
    0.039,                   !- Exhaust Air Flow Rate {m3/s}
    LR_VENT_Supply,          !- Supply Air Fan Name
    LR_VENT_Exhaust,         !- Exhaust Air Fan Name
    LR_HRV_Bypass;           !- Controller Name

ZoneHVAC:EnergyRecoveryVentilator:Controller,
    LR_HRV_Bypass,           !- Name
    20,                      !- Temperature High Limit {C}
    10,                      !- Temperature Low Limit {C}
    ,                        !- Enthalpy High Limit {J/kg}
    ,                        !- Dewpoint Temperature Limit {C}
    ,                        !- Electronic Enthalpy Limit Curve Name
    NoExhaustAirTemperatureLimit,  !- Exhaust Air Temperature Limit
    NoExhaustAirEnthalpyLimit,  !- Exhaust Air Enthalpy Limit
    ,                        !- Time of Day Economizer Flow Control Schedule Name
    No,                      !- High Humidity Control Flag
    ,                        !- Humidistat Control Zone Name
    1,                       !- High Humidity Outdoor Air Flow Ratio
    Yes;                     !- Control High Indoor Humidity Based on Outdoor Humidity Ratio

HeatExchanger:AirToAir:SensibleAndLatent,
    LR_VENT_HEX,             !- Name
    Vent_Sched,              !- Availability Schedule Name
    0.039,                   !- Nominal Supply Air Flow Rate {m3/s}
    0.75,                    !- Sensible Effectiveness at 100% Heating Air Flow {dimensionless}
    0.7,                     !- Latent Effectiveness at 100% Heating Air Flow {dimensionless}
    0.75,                    !- Sensible Effectiveness at 75% Heating Air Flow {dimensionless}
    0.7,                     !- Latent Effectiveness at 75% Heating Air Flow {dimensionless}
    0.75,                    !- Sensible Effectiveness at 100% Cooling Air Flow {dimensionless}
    0.7,                     !- Latent Effectiveness at 100% Cooling Air Flow {dimensionless}
    0.75,                    !- Sensible Effectiveness at 75% Cooling Air Flow {dimensionless}
    0.7,                     !- Latent Effectiveness at 75% Cooling Air Flow {dimensionless}
    LR_VENT_OANODE,          !- Supply Air Inlet Node Name
    LR_VENT_HRInletNode,     !- Supply Air Outlet Node Name
    LR_VENT_ZoneOutletNode,  !- Exhaust Air Inlet Node Name
    LR_VENT_HROutletNode,    !- Exhaust Air Outlet Node Name
    ,                        !- Nominal Electric Power {W}
    No,                      !- Supply Air Outlet Temperature Control
    Plate,                   !- Heat Exchanger Type
    None,                    !- Frost Control Type
    1.7,                     !- Threshold Temperature {C}
    0.083,                   !- Initial Defrost Time Fraction {dimensionless}
    0.012,                   !- Rate of Defrost Time Fraction Increase {1/K}
    Yes;                     !- Economizer Lockout

Fan:OnOff,
    LR_VENT_Supply,          !- Name
    HRV_Sched,               !- Availability Schedule Name
    0.8,                     !- Fan Total Efficiency
    1,                       !- Pressure Rise {Pa}
    0.039,                   !- Maximum Flow Rate {m3/s}
    0.95,                    !- Motor Efficiency
    1,                       !- Motor In Airstream Fraction
    LR_VENT_HRInletNode,     !- Air Inlet Node Name
    LR_VENT_ZoneInletNode;   !- Air Outlet Node Name

Fan:OnOff,
    LR_VENT_Exhaust,         !- Name
    HRV_Sched,               !- Availability Schedule Name
    0.8,                     !- Fan Total Efficiency
    1,                       !- Pressure Rise {Pa}
    0.039,                   !- Maximum Flow Rate {m3/s}
    0.95,                    !- Motor Efficiency
    1,                       !- Motor In Airstream Fraction
    LR_VENT_HROutletNode,    !- Air Inlet Node Name
    LR_VENT_OutdoorFanOutlet;!- Air Outlet Node Name

Schedule:Compact,
    HRV_Sched,               !- Name
    Continous,               !- Schedule Type Limits Name
    Through: 12/31,          !- Field 1
    For: AllDays,            !- Field 2
    Until: 06:00, .6,        !- Field 4
    Until: 23:00, 1,         !- Field 6
    Until: 24:00, .6;        !- Field 8

NodeList,
    LR_OUTLET,               !- Name
    LR_VENT_ZoneOutletNode;  !- Node 1 Name

OutdoorAir:Node,
    LR_VENT_OANODE,          !- Name
    -1;                      !- Height Above Ground {m}

Construction:InternalSource,
    AI_INT_LR_LW,            !- Name
    1,                       !- Source Present After Layer Number
    1,                       !- Temperature Calculation Requested After Layer Number
    1,                       !- Dimensions for the CTF Calculation
    0.01,                    !- Tube Spacing {m}
    AI-Insulation,           !- Outside Layer
    AI-Aluminium,            !- Layer 2
    WoodWallStructure,       !- Layer 3
    Plaster_Gypsum;          !- Layer 4

Construction:InternalSource,
    AI_INT_Zone_LW,          !- Name
    3,                       !- Source Present After Layer Number
    3,                       !- Temperature Calculation Requested After Layer Number
    1,                       !- Dimensions for the CTF Calculation
    0.01,                    !- Tube Spacing {m}
    Plaster_Gypsum,          !- Outside Layer
    WoodWallStructure,       !- Layer 2
    AI-Aluminium,            !- Layer 3
    AI-Insulation;           !- Layer 4

Material:NoMass,
    HighInsul,               !- Name
    MediumSmooth,            !- Roughness
    10,                      !- Thermal Resistance {m2-K/W}
    0.0000001,               !- Thermal Absorptance
    0,                       !- Solar Absorptance
    0;                       !- Visible Absorptance

Construction,
    Adiabatic_Insul,         !- Name
    HighInsul;               !- Outside Layer

BuildingSurface:Detailed,
    LR_Floor,                !- Name
    Floor,                   !- Surface Type
    GroundFloor,             !- Construction Name
    LivingRoom,              !- Zone Name
    Ground,                  !- Outside Boundary Condition
    ,                        !- Outside Boundary Condition Object
    NoSun,                   !- Sun Exposure
    NoWind,                  !- Wind Exposure
    ,                        !- View Factor to Ground
    ,                        !- Number of Vertices
    4.28, 5.97, 0,                      !- X,Y,Z  1 {m}
    4.28, 4.895, 0,                     !- X,Y,Z  2 {m}
    4.3, 4.895, 0,                      !- X,Y,Z  3 {m}
    4.3, 1.095, 0,                      !- X,Y,Z  4 {m}
    4.28, 1.095, 0,                     !- X,Y,Z  5 {m}
    4.28, 0.02, 0,                      !- X,Y,Z  6 {m}
    0, 0.02, 0,                         !- X,Y,Z  7 {m}
    0, 5.97, 0;                         !- X,Y,Z  8 {m}

BuildingSurface:Detailed,
    LR_Int_S_W1_2,           !- Name
    Wall,                    !- Surface Type
    Adiabatic_Insul,         !- Construction Name
    LivingRoom,              !- Zone Name
    Surface,                 !- Outside Boundary Condition
    AI_South_Int_W1_2,       !- Outside Boundary Condition Object
    NoSun,                   !- Sun Exposure
    NoWind,                  !- Wind Exposure
    ,                        !- View Factor to Ground
    ,                        !- Number of Vertices
    1.45, 0, 2.4,                       !- X,Y,Z  1 {m}
    1.45, 0, 0.9,                       !- X,Y,Z  2 {m}
    1.45, 0.02, 0.9,                    !- X,Y,Z  3 {m}
    1.45, 0.02, 2.4;                    !- X,Y,Z  4 {m}

BuildingSurface:Detailed,
    LR_Int_S_W1_4,           !- Name
    Wall,                    !- Surface Type
    Adiabatic_Insul,         !- Construction Name
    LivingRoom,              !- Zone Name
    Surface,                 !- Outside Boundary Condition
    AI_South_Int_W1_4,       !- Outside Boundary Condition Object
    NoSun,                   !- Sun Exposure
    NoWind,                  !- Wind Exposure
    ,                        !- View Factor to Ground
    ,                        !- Number of Vertices
    0.45, 0.02, 2.4,                    !- X,Y,Z  1 {m}
    0.45, 0.02, 0.9,                    !- X,Y,Z  2 {m}
    0.45, 0, 0.9,                       !- X,Y,Z  3 {m}
    0.45, 0, 2.4;                       !- X,Y,Z  4 {m}

BuildingSurface:Detailed,
    LR_Int_S_W2_4,           !- Name
    Wall,                    !- Surface Type
    Adiabatic_Insul,         !- Construction Name
    LivingRoom,              !- Zone Name
    Surface,                 !- Outside Boundary Condition
    AI_South_Int_W2_4,       !- Outside Boundary Condition Object
    NoSun,                   !- Sun Exposure
    NoWind,                  !- Wind Exposure
    ,                        !- View Factor to Ground
    ,                        !- Number of Vertices
    2.75, 0.02, 2.4,                    !- X,Y,Z  1 {m}
    2.75, 0.02, 0.9,                    !- X,Y,Z  2 {m}
    2.75, 0, 0.9,                       !- X,Y,Z  3 {m}
    2.75, 0, 2.4;                       !- X,Y,Z  4 {m}

BuildingSurface:Detailed,
    LR_Int_S_W2_2,           !- Name
    Wall,                    !- Surface Type
    Adiabatic_Insul,         !- Construction Name
    LivingRoom,              !- Zone Name
    Surface,                 !- Outside Boundary Condition
    AI_South_Int_W2_2,       !- Outside Boundary Condition Object
    NoSun,                   !- Sun Exposure
    NoWind,                  !- Wind Exposure
    ,                        !- View Factor to Ground
    ,                        !- Number of Vertices
    3.75, 0, 2.4,                       !- X,Y,Z  1 {m}
    3.75, 0, 0.9,                       !- X,Y,Z  2 {m}
    3.75, 0.02, 0.9,                    !- X,Y,Z  3 {m}
    3.75, 0.02, 2.4;                    !- X,Y,Z  4 {m}

BuildingSurface:Detailed,
    LR_Int_S_W2_1,           !- Name
    Wall,                    !- Surface Type
    Adiabatic_Insul,         !- Construction Name
    LivingRoom,              !- Zone Name
    Surface,                 !- Outside Boundary Condition
    AI_South_Int_W2_1,       !- Outside Boundary Condition Object
    NoSun,                   !- Sun Exposure
    NoWind,                  !- Wind Exposure
    ,                        !- View Factor to Ground
    ,                        !- Number of Vertices
    2.75, 0.02, 2.4,                    !- X,Y,Z  1 {m}
    2.75, 0, 2.4,                       !- X,Y,Z  2 {m}
    3.75, 0, 2.4,                       !- X,Y,Z  3 {m}
    3.75, 0.02, 2.4;                    !- X,Y,Z  4 {m}

BuildingSurface:Detailed,
    LR_Int_S_W1_3,           !- Name
    Wall,                    !- Surface Type
    Adiabatic_Insul,         !- Construction Name
    LivingRoom,              !- Zone Name
    Surface,                 !- Outside Boundary Condition
    AI_South_Int_W1_3,       !- Outside Boundary Condition Object
    NoSun,                   !- Sun Exposure
    NoWind,                  !- Wind Exposure
    ,                        !- View Factor to Ground
    ,                        !- Number of Vertices
    0.45, 0, 0.9,                       !- X,Y,Z  1 {m}
    0.45, 0.02, 0.9,                    !- X,Y,Z  2 {m}
    1.45, 0.02, 0.9,                    !- X,Y,Z  3 {m}
    1.45, 0, 0.9;                       !- X,Y,Z  4 {m}

BuildingSurface:Detailed,
    LR_Int_S_W2_3,           !- Name
    Wall,                    !- Surface Type
    Adiabatic_Insul,         !- Construction Name
    LivingRoom,              !- Zone Name
    Surface,                 !- Outside Boundary Condition
    AI_South_Int_W2_3,       !- Outside Boundary Condition Object
    NoSun,                   !- Sun Exposure
    NoWind,                  !- Wind Exposure
    ,                        !- View Factor to Ground
    ,                        !- Number of Vertices
    2.75, 0, 0.9,                       !- X,Y,Z  1 {m}
    2.75, 0.02, 0.9,                    !- X,Y,Z  2 {m}
    3.75, 0.02, 0.9,                    !- X,Y,Z  3 {m}
    3.75, 0, 0.9;                       !- X,Y,Z  4 {m}

BuildingSurface:Detailed,
    LR_Ext_N1,               !- Name
    Wall,                    !- Surface Type
    ExternalWall,            !- Construction Name
    LivingRoom,              !- Zone Name
    Outdoors,                !- Outside Boundary Condition
    ,                        !- Outside Boundary Condition Object
    SunExposed,              !- Sun Exposure
    WindExposed,             !- Wind Exposure
    ,                        !- View Factor to Ground
    ,                        !- Number of Vertices
    1.45, 5.99, 2.4,                    !- X,Y,Z  1 {m}
    1.45, 5.99, 0.9,                    !- X,Y,Z  2 {m}
    0.45, 5.99, 0.9,                    !- X,Y,Z  3 {m}
    0.45, 5.99, 2.4;                    !- X,Y,Z  4 {m}

BuildingSurface:Detailed,
    LR_Ext_N2,               !- Name
    Wall,                    !- Surface Type
    ExternalWall,            !- Construction Name
    LivingRoom,              !- Zone Name
    Outdoors,                !- Outside Boundary Condition
    ,                        !- Outside Boundary Condition Object
    SunExposed,              !- Sun Exposure
    WindExposed,             !- Wind Exposure
    ,                        !- View Factor to Ground
    ,                        !- Number of Vertices
    3.75, 5.99, 2.4,                    !- X,Y,Z  1 {m}
    3.75, 5.99, 0.9,                    !- X,Y,Z  2 {m}
    2.75, 5.99, 0.9,                    !- X,Y,Z  3 {m}
    2.75, 5.99, 2.4;                    !- X,Y,Z  4 {m}

BuildingSurface:Detailed,
    LR_Int_N_W1_2,           !- Name
    Wall,                    !- Surface Type
    Adiabatic_Insul,         !- Construction Name
    LivingRoom,              !- Zone Name
    Surface,                 !- Outside Boundary Condition
    AI_North_Int_W1_2,       !- Outside Boundary Condition Object
    NoSun,                   !- Sun Exposure
    NoWind,                  !- Wind Exposure
    ,                        !- View Factor to Ground
    ,                        !- Number of Vertices
    1.45, 5.97, 2.4,                    !- X,Y,Z  1 {m}
    1.45, 5.97, 0.9,                    !- X,Y,Z  2 {m}
    1.45, 5.99, 0.9,                    !- X,Y,Z  3 {m}
    1.45, 5.99, 2.4;                    !- X,Y,Z  4 {m}

BuildingSurface:Detailed,
    LR_IntPart,              !- Name
    Wall,                    !- Surface Type
    InternalWall,            !- Construction Name
    LivingRoom,              !- Zone Name
    Adiabatic,               !- Outside Boundary Condition
    ,                        !- Outside Boundary Condition Object
    NoSun,                   !- Sun Exposure
    NoWind,                  !- Wind Exposure
    ,                        !- View Factor to Ground
    ,                        !- Number of Vertices
    0, 5.97, 2.63,                      !- X,Y,Z  1 {m}
    0, 5.97, 0,                         !- X,Y,Z  2 {m}
    0, 0.02, 0,                         !- X,Y,Z  3 {m}
    0, 0.02, 2.63;                      !- X,Y,Z  4 {m}

BuildingSurface:Detailed,
    LR_Int_N_W1_1,           !- Name
    Wall,                    !- Surface Type
    Adiabatic_Insul,         !- Construction Name
    LivingRoom,              !- Zone Name
    Surface,                 !- Outside Boundary Condition
    AI_North_Int_W1_1,       !- Outside Boundary Condition Object
    NoSun,                   !- Sun Exposure
    NoWind,                  !- Wind Exposure
    ,                        !- View Factor to Ground
    ,                        !- Number of Vertices
    0.45, 5.99, 2.4,                    !- X,Y,Z  1 {m}
    0.45, 5.97, 2.4,                    !- X,Y,Z  2 {m}
    1.45, 5.97, 2.4,                    !- X,Y,Z  3 {m}
    1.45, 5.99, 2.4;                    !- X,Y,Z  4 {m}

BuildingSurface:Detailed,
    LR_Int_N_W1_4,           !- Name
    Wall,                    !- Surface Type
    Adiabatic_Insul,         !- Construction Name
    LivingRoom,              !- Zone Name
    Surface,                 !- Outside Boundary Condition
    AI_North_Int_W1_4,       !- Outside Boundary Condition Object
    NoSun,                   !- Sun Exposure
    NoWind,                  !- Wind Exposure
    ,                        !- View Factor to Ground
    ,                        !- Number of Vertices
    0.45, 5.99, 2.4,                    !- X,Y,Z  1 {m}
    0.45, 5.99, 0.9,                    !- X,Y,Z  2 {m}
    0.45, 5.97, 0.9,                    !- X,Y,Z  3 {m}
    0.45, 5.97, 2.4;                    !- X,Y,Z  4 {m}

BuildingSurface:Detailed,
    LR_Int_E_W1_2,           !- Name
    Wall,                    !- Surface Type
    Adiabatic_Insul,         !- Construction Name
    LivingRoom,              !- Zone Name
    Surface,                 !- Outside Boundary Condition
    AI_East_Int_W1_2,        !- Outside Boundary Condition Object
    NoSun,                   !- Sun Exposure
    NoWind,                  !- Wind Exposure
    ,                        !- View Factor to Ground
    ,                        !- Number of Vertices
    4.3, 4.895, 2.4,                    !- X,Y,Z  1 {m}
    4.3, 4.895, 0,                      !- X,Y,Z  2 {m}
    4.28, 4.895, 0,                     !- X,Y,Z  3 {m}
    4.28, 4.895, 2.4;                   !- X,Y,Z  4 {m}

BuildingSurface:Detailed,
    LR_Int_N_W2_2,           !- Name
    Wall,                    !- Surface Type
    Adiabatic_Insul,         !- Construction Name
    LivingRoom,              !- Zone Name
    Surface,                 !- Outside Boundary Condition
    AI_North_Int_W2_2,       !- Outside Boundary Condition Object
    NoSun,                   !- Sun Exposure
    NoWind,                  !- Wind Exposure
    ,                        !- View Factor to Ground
    ,                        !- Number of Vertices
    3.75, 5.97, 2.4,                    !- X,Y,Z  1 {m}
    3.75, 5.97, 0.9,                    !- X,Y,Z  2 {m}
    3.75, 5.99, 0.9,                    !- X,Y,Z  3 {m}
    3.75, 5.99, 2.4;                    !- X,Y,Z  4 {m}

BuildingSurface:Detailed,
    LR_Int_N_W2_1,           !- Name
    Wall,                    !- Surface Type
    Adiabatic_Insul,         !- Construction Name
    LivingRoom,              !- Zone Name
    Surface,                 !- Outside Boundary Condition
    AI_North_Int_W2_1,       !- Outside Boundary Condition Object
    NoSun,                   !- Sun Exposure
    NoWind,                  !- Wind Exposure
    ,                        !- View Factor to Ground
    ,                        !- Number of Vertices
    2.75, 5.99, 2.4,                    !- X,Y,Z  1 {m}
    2.75, 5.97, 2.4,                    !- X,Y,Z  2 {m}
    3.75, 5.97, 2.4,                    !- X,Y,Z  3 {m}
    3.75, 5.99, 2.4;                    !- X,Y,Z  4 {m}

BuildingSurface:Detailed,
    LR_Int_N_W2_4,           !- Name
    Wall,                    !- Surface Type
    Adiabatic_Insul,         !- Construction Name
    LivingRoom,              !- Zone Name
    Surface,                 !- Outside Boundary Condition
    AI_North_Int_W2_4,       !- Outside Boundary Condition Object
    NoSun,                   !- Sun Exposure
    NoWind,                  !- Wind Exposure
    ,                        !- View Factor to Ground
    ,                        !- Number of Vertices
    2.75, 5.99, 2.4,                    !- X,Y,Z  1 {m}
    2.75, 5.99, 0.9,                    !- X,Y,Z  2 {m}
    2.75, 5.97, 0.9,                    !- X,Y,Z  3 {m}
    2.75, 5.97, 2.4;                    !- X,Y,Z  4 {m}

BuildingSurface:Detailed,
    LR_Int_N_W2_3,           !- Name
    Wall,                    !- Surface Type
    Adiabatic_Insul,         !- Construction Name
    LivingRoom,              !- Zone Name
    Surface,                 !- Outside Boundary Condition
    AI_North_Int_W2_3,       !- Outside Boundary Condition Object
    NoSun,                   !- Sun Exposure
    NoWind,                  !- Wind Exposure
    ,                        !- View Factor to Ground
    ,                        !- Number of Vertices
    2.75, 5.97, 0.9,                    !- X,Y,Z  1 {m}
    2.75, 5.99, 0.9,                    !- X,Y,Z  2 {m}
    3.75, 5.99, 0.9,                    !- X,Y,Z  3 {m}
    3.75, 5.97, 0.9;                    !- X,Y,Z  4 {m}

BuildingSurface:Detailed,
    LR_Int_E_W1_1,           !- Name
    Wall,                    !- Surface Type
    Adiabatic_Insul,         !- Construction Name
    LivingRoom,              !- Zone Name
    Surface,                 !- Outside Boundary Condition
    AI_East_Int_W1_1,        !- Outside Boundary Condition Object
    NoSun,                   !- Sun Exposure
    NoWind,                  !- Wind Exposure
    ,                        !- View Factor to Ground
    ,                        !- Number of Vertices
    4.28, 4.895, 2.4,                   !- X,Y,Z  1 {m}
    4.28, 1.095, 2.4,                   !- X,Y,Z  2 {m}
    4.3, 1.095, 2.4,                    !- X,Y,Z  3 {m}
    4.3, 4.895, 2.4;                    !- X,Y,Z  4 {m}

BuildingSurface:Detailed,
    LR_Int_N,                !- Name
    Wall,                    !- Surface Type
    AI_INT_LR,               !- Construction Name
    LivingRoom,              !- Zone Name
    Surface,                 !- Outside Boundary Condition
    AI_North_Int_LR,         !- Outside Boundary Condition Object
    NoSun,                   !- Sun Exposure
    NoWind,                  !- Wind Exposure
    ,                        !- View Factor to Ground
    ,                        !- Number of Vertices
    4.28, 5.97, 2.63,                   !- X,Y,Z  1 {m}
    4.28, 5.97, 0,                      !- X,Y,Z  2 {m}
    3.75, 5.97, 0.9,                    !- X,Y,Z  3 {m}
    3.75, 5.97, 2.4,                    !- X,Y,Z  4 {m}
    2.75, 5.97, 2.4,                    !- X,Y,Z  5 {m}
    2.75, 5.97, 0.9,                    !- X,Y,Z  6 {m}
    3.75, 5.97, 0.9,                    !- X,Y,Z  7 {m}
    4.28, 5.97, 0,                      !- X,Y,Z  8 {m}
    0, 5.97, 0,                         !- X,Y,Z  9 {m}
    0.45, 5.97, 0.9,                    !- X,Y,Z  10 {m}
    1.45, 5.97, 0.9,                    !- X,Y,Z  11 {m}
    1.45, 5.97, 2.4,                    !- X,Y,Z  12 {m}
    0.45, 5.97, 2.4,                    !- X,Y,Z  13 {m}
    0.45, 5.97, 0.9,                    !- X,Y,Z  14 {m}
    0, 5.97, 0,                         !- X,Y,Z  15 {m}
    0, 5.97, 2.63;                      !- X,Y,Z  16 {m}

BuildingSurface:Detailed,
    LR_Int_E,                !- Name
    Wall,                    !- Surface Type
    AI_INT_LR,               !- Construction Name
    LivingRoom,              !- Zone Name
    Surface,                 !- Outside Boundary Condition
    AI_East_Int_LR,          !- Outside Boundary Condition Object
    NoSun,                   !- Sun Exposure
    NoWind,                  !- Wind Exposure
    ,                        !- View Factor to Ground
    ,                        !- Number of Vertices
    4.28, 0.02, 2.63,                   !- X,Y,Z  1 {m}
    4.28, 0.02, 0,                      !- X,Y,Z  2 {m}
    4.28, 1.095, 0,                     !- X,Y,Z  3 {m}
    4.28, 1.095, 2.4,                   !- X,Y,Z  4 {m}
    4.28, 4.895, 2.4,                   !- X,Y,Z  5 {m}
    4.28, 4.895, 0,                     !- X,Y,Z  6 {m}
    4.28, 5.97, 0,                      !- X,Y,Z  7 {m}
    4.28, 5.97, 2.63;                   !- X,Y,Z  8 {m}

BuildingSurface:Detailed,
    LR_Ceiling,              !- Name
    Ceiling,                 !- Surface Type
    InternalFloor,           !- Construction Name
    LivingRoom,              !- Zone Name
    Adiabatic,               !- Outside Boundary Condition
    ,                        !- Outside Boundary Condition Object
    NoSun,                   !- Sun Exposure
    NoWind,                  !- Wind Exposure
    ,                        !- View Factor to Ground
    ,                        !- Number of Vertices
    4.28, 0.02, 2.63,                   !- X,Y,Z  1 {m}
    4.28, 5.97, 2.63,                   !- X,Y,Z  2 {m}
    0, 5.97, 2.63,                      !- X,Y,Z  3 {m}
    0, 0.02, 2.63;                      !- X,Y,Z  4 {m}

BuildingSurface:Detailed,
    LR_Ext_E1,               !- Name
    Wall,                    !- Surface Type
    ExternalWall,            !- Construction Name
    LivingRoom,              !- Zone Name
    Outdoors,                !- Outside Boundary Condition
    ,                        !- Outside Boundary Condition Object
    SunExposed,              !- Sun Exposure
    WindExposed,             !- Wind Exposure
    ,                        !- View Factor to Ground
    ,                        !- Number of Vertices
    4.3, 1.095, 2.4,                    !- X,Y,Z  1 {m}
    4.3, 1.095, 0,                      !- X,Y,Z  2 {m}
    4.3, 4.895, 0,                      !- X,Y,Z  3 {m}
    4.3, 4.895, 2.4;                    !- X,Y,Z  4 {m}

BuildingSurface:Detailed,
    LR_Int_N_W1_3,           !- Name
    Wall,                    !- Surface Type
    Adiabatic_Insul,         !- Construction Name
    LivingRoom,              !- Zone Name
    Surface,                 !- Outside Boundary Condition
    AI_North_Int_W1_3,       !- Outside Boundary Condition Object
    NoSun,                   !- Sun Exposure
    NoWind,                  !- Wind Exposure
    ,                        !- View Factor to Ground
    ,                        !- Number of Vertices
    0.45, 5.97, 0.9,                    !- X,Y,Z  1 {m}
    0.45, 5.99, 0.9,                    !- X,Y,Z  2 {m}
    1.45, 5.99, 0.9,                    !- X,Y,Z  3 {m}
    1.45, 5.97, 0.9;                    !- X,Y,Z  4 {m}

BuildingSurface:Detailed,
    LR_Int_E_W1_4,           !- Name
    Wall,                    !- Surface Type
    Adiabatic_Insul,         !- Construction Name
    LivingRoom,              !- Zone Name
    Surface,                 !- Outside Boundary Condition
    AI_East_Int_W1_4,        !- Outside Boundary Condition Object
    NoSun,                   !- Sun Exposure
    NoWind,                  !- Wind Exposure
    ,                        !- View Factor to Ground
    ,                        !- Number of Vertices
    4.28, 1.095, 2.4,                   !- X,Y,Z  1 {m}
    4.28, 1.095, 0,                     !- X,Y,Z  2 {m}
    4.3, 1.095, 0,                      !- X,Y,Z  3 {m}
    4.3, 1.095, 2.4;                    !- X,Y,Z  4 {m}

BuildingSurface:Detailed,
    LR_Int_S,                !- Name
    Wall,                    !- Surface Type
    AI_INT_LR,               !- Construction Name
    LivingRoom,              !- Zone Name
    Surface,                 !- Outside Boundary Condition
    AI_South_Int_LR,         !- Outside Boundary Condition Object
    NoSun,                   !- Sun Exposure
    NoWind,                  !- Wind Exposure
    ,                        !- View Factor to Ground
    ,                        !- Number of Vertices
    0, 0.02, 2.63,                      !- X,Y,Z  1 {m}
    0, 0.02, 0,                         !- X,Y,Z  2 {m}
    0.45, 0.02, 0.9,                    !- X,Y,Z  3 {m}